region box block 0 52.794504272175 0 54.794296100667 0 45.195295323908
units metal
dimension 3
boundary p p p
atom_style full
create_box 1 box
Created orthogonal box = (0 0 0) to (52.794504 54.794296 45.195295)
create_atoms 1 random 1620 43 box
Created 1620 atoms
mass 1 40.078
pair_style hybrid/overlay lj/cut 25 gauss/cut 25 gauss/cut 25
pair_coeff 1 1 lj/cut 0.009507177838705264 3.7584971993521488
pair_coeff 1 1 gauss/cut 1 -0.0597999248039827 5.991246456844763 0.601172550524922
pair_coeff 1 1 gauss/cut 2 0.0726183915985775 5.919659952808235 0.9307156951487607
run 1
Generated 0 of 0 mixed pair_coeff terms from geometric mixing rule
  update every 1 steps, delay 10 steps, check yes
Step          Temp          E_pair         E_mol          TotEng         Press
0   0              1.015667e+10   0              1.015667e+10   4.9785793e+11
Loop time of 0.0128442 on 16 procs for 1 steps with 1620 atoms

thermo 1000
neighbor 2.0 bin
neigh_modify every 1 delay 0 check yes one 200000 page 2000000000
minimize 0.0 1.0e-8 100 1000
Generated 0 of 0 mixed pair_coeff terms from geometric mixing rule
  update every 1 steps, delay 0 steps, check yes
Step          Temp          E_pair         E_mol          TotEng         Press
1   0              1.015667e+10   0              1.015667e+10   4.9785793e+11
Loop time of 0.989625 on 16 procs for 100 steps with 1620 atoms

Minimization stats:
  Stopping criterion = max iterations
  Energy initial, next-to-last, final =
  Force two-norm initial, final = 3.4231745e+11 0.43169627
  Force max component initial, final = 1.7081838e+11 0.047539833
  Final line search alpha, max atom move = 1 0.047539833
  Iterations, force evaluations = 100 109

timestep 0.0005
fix 1 all nvt temp 300.0 300.0 $(100.0*dt)
fix 1 all nvt temp 300.0 300.0 0.050000000000000002776
fix removeMomentum all momentum 1 linear 1 1 1
dump 1 all custom 1000 ljg2_nvt_43/ca.traj id mol type mass x y z
dump_modify 1 sort id
run 2000000
Generated 0 of 0 mixed pair_coeff terms from geometric mixing rule
Step          Temp          E_pair         E_mol          TotEng         Press
101   0             -50.65793       0             -50.65793       663.89299
Averages over the last 1001 of 2002 rows, steps 1001000 to 2000101:
Temp E_pair E_mol TotEng Press
300.218 -4.64975 0 58.1775 2092.2
Loop time of 14055.3 on 16 procs for 2000000 steps with 1620 atoms

comm_modify cutoff 27.58
compute myRDF all rdf 1129 cutoff 22.58
fix 2 all ave/time 1 1 1 c_myRDF[*] file ljg2_nvt_43rdf.rdf mode vector
run 0 pre yes post no
Generated 0 of 0 mixed pair_coeff terms from geometric mixing rule
  update every 1 steps, delay 0 steps, check yes
Step          Temp          E_pair         E_mol          TotEng         Press
2000101   297.68957     -3.5580457      0              58.740098      2144.7937
Loop time of 4.75463e-06 on 16 procs for 0 steps with 1620 atoms

uncompute myRDF
unfix 2
write_data ljg2_nvt_43/ca_md.data nocoeff nofix
System init for write_data ...
Generated 0 of 0 mixed pair_coeff terms from geometric mixing rule
  update every 1 steps, delay 0 steps, check yes
